   1008.37     298.98      18.20
   312.50000     298.97986     18.20378      0.00000     0.00000
   937.50000     301.76352     12.62319      0.00000     0.00000
   1562.50000     304.69629      8.46203      0.00000     0.00000
   2187.50000     307.67136      6.78447      0.00000     0.00000
   2812.50000     310.46017      5.71243      0.00000     0.00000
   3437.50000     313.18408      4.76555      0.00000     0.00000
   4062.50000     316.00720      3.86581      0.00000     0.00000
   4687.50000     318.93881      3.05780      0.00000     0.00000
   5312.50000     321.84460      2.34915      0.00000     0.00000
   5937.50000     324.63666      1.74426      0.00000     0.00000
   6562.50000     327.26440      1.25456      0.00000     0.00000
   7187.50000     329.69681      0.87097      0.00000     0.00000
   7812.50000     331.91571      0.58459      0.00000     0.00000
   8437.50000     333.84061      0.39088      0.00000     0.00000
   9062.50000     335.44049      0.26374      0.00000     0.00000
   9687.50000     336.75052      0.18108      0.00000     0.00000
   10312.50000     337.85608      0.12462      0.00000     0.00000
   10937.50000     338.82794      0.08461      0.00000     0.00000
   11562.50000     339.72708      0.05548      0.00000     0.00000
   12187.50000     340.63608      0.03491      0.00000     0.00000
   12812.50000     341.72128      0.02116      0.00000     0.00000
   13437.50000     343.46295      0.01272      0.00000     0.00000
   14062.50000     347.54596      0.00854      0.00000     0.00000
   14687.50000     356.00720      0.00773      0.00000     0.00000
   15312.50000     367.26212      0.00848      0.00000     0.00000
   15937.50000     379.04819      0.00962      0.00000     0.00000
   16562.50000     390.84109      0.01078      0.00000     0.00000
   17187.50000     402.82214      0.01194      0.00000     0.00000
   17812.50000     415.13959      0.01318      0.00000     0.00000
   18437.50000     427.81342      0.01458      0.00000     0.00000
   19062.50000     440.92877      0.01620      0.00000     0.00000
   19687.50000     454.76630      0.01830      0.00000     0.00000
   20312.50000     469.74091      0.02136      0.00000     0.00000
   20937.50000     486.07028      0.02597      0.00000     0.00000
   21562.50000     503.49020      0.03200      0.00000     0.00000
   22187.50000     521.40955      0.03784      0.00000     0.00000
   22812.50000     538.99445      0.04136      0.00000     0.00000
   23437.50000     555.36639      0.04259      0.00000     0.00000
   24062.50000     569.81421      0.04269      0.00000     0.00000
   24687.50000     582.39923      0.04212      0.00000     0.00000
   25312.50000     594.01849      0.04100      0.00000     0.00000
   25937.50000     609.06311      0.04034      0.00000     0.00000
   26562.50000     627.26178      0.04125      0.00000     0.00000
   27187.50000     646.54596      0.04412      0.00000     0.00000
   27812.50000     666.52533      0.04912      0.00000     0.00000
   28437.50000     687.14154      0.05478      0.00000     0.00000
   29062.50000     708.40540      0.05988      0.00000     0.00000
   29687.50000     730.32013      0.06478      0.00000     0.00000
   30312.50000     752.92493      0.06478      0.00000     0.00000
   30937.50000     776.22949      0.06478      0.00000     0.00000
   31562.50000     800.25525      0.06478      0.00000     0.00000
   32187.50000     825.02466      0.06478      0.00000     0.00000
   32812.50000     850.56079      0.06478      0.00000     0.00000
   33437.50000     876.88727      0.06478      0.00000     0.00000
   34062.50000     904.02856      0.06478      0.00000     0.00000
   34687.50000     932.01001      0.06478      0.00000     0.00000
   35312.50000     960.85760      0.06478      0.00000     0.00000
   35937.50000     990.59796      0.06478      0.00000     0.00000
